
---------- Begin Simulation Statistics ----------
simSeconds                                   0.008613                       # Number of seconds simulated (Second)
simTicks                                   8612558154                       # Number of ticks simulated (Tick)
finalTick                                  8612558154                       # Number of ticks from beginning of simulation (restored from checkpoints and never reset) (Tick)
simFreq                                  1000000000000                       # The number of ticks per simulated second ((Tick/Second))
hostSeconds                                    200.48                       # Real time elapsed on the host (Second)
hostTickRate                                 42960064                       # The number of ticks simulated per host second (ticks/s) ((Tick/Second))
hostMemory                                    8615400                       # Number of bytes of host memory used (Byte)
simInsts                                     20000003                       # Number of instructions simulated (Count)
simOps                                       20000008                       # Number of ops (including micro ops) simulated (Count)
hostInstRate                                    99761                       # Simulator instruction rate (inst/s) ((Count/Second))
hostOpRate                                      99761                       # Simulator op (including micro ops) rate (op/s) ((Count/Second))
system.bridge.power_state.pwrStateResidencyTicks::UNDEFINED   8612558154                       # Cumulative time (in ticks) in various power states (Tick)
system.clk_domain.clock                           333                       # Clock period in ticks (Tick)
system.cpu.numCycles                         25863539                       # Number of cpu cycles simulated (Cycle)
system.cpu.numWorkItemsStarted                      0                       # Number of work items this cpu started (Count)
system.cpu.numWorkItemsCompleted                    0                       # Number of work items this cpu completed (Count)
system.cpu.committedInsts                    20000003                       # Number of Instructions Simulated (Count)
system.cpu.committedOps                      20000008                       # Number of Ops (including micro ops) Simulated (Count)
system.cpu.cpi                               1.293177                       # CPI: Cycles Per Instruction ((Cycle/Count))
system.cpu.totalCpi                          1.293177                       # CPI: Total CPI of All Threads ((Cycle/Count))
system.cpu.ipc                               0.773289                       # IPC: Instructions Per Cycle ((Count/Cycle))
system.cpu.totalIpc                          0.773289                       # IPC: Total IPC of All Threads ((Count/Cycle))
system.cpu.baseRetiring                      0.096661                       # Level1: Retiring ((Count/Cycle))
system.cpu.frontendBound                     0.000240                       # Level1: Frontend Bound ((Count/Cycle))
system.cpu.frontendLatencyBound              0.000237                       # Level2: |--Frontend Latency Bound ((Count/Cycle))
system.cpu.frontendBandwidthBound            0.000003                       # Level2: |--Frontend Bandwidth Bound ((Count/Cycle))
system.cpu.badSpecBound                      0.000074                       # Level1: Bad Speculation ((Count/Cycle))
system.cpu.branchMissPrediction              0.000073                       # Level2: |--Branch Missprediction ((Count/Cycle))
system.cpu.machineClears                     0.000002                       # Level2: |--Machine Clears ((Count/Cycle))
system.cpu.backendBound                      0.903025                       # Level1: Backend Bound ((Count/Cycle))
system.cpu.coreBound                        -0.091559                       # Level2: |--Core Bound ((Count/Cycle))
system.cpu.memoryBound                       0.994584                       # Level2: |--Memory Bound ((Count/Cycle))
system.cpu.l1Bound                           0.091807                       # Level3:    |--L1 Bound ((Count/Cycle))
system.cpu.l2Bound                           0.000025                       # Level3:    |--L2 Bound ((Count/Cycle))
system.cpu.l3Bound                           0.000001                       # Level3:    |--L3 Bound ((Count/Cycle))
system.cpu.memBound                          0.000000                       # Level3:    |--Memory Bound ((Count/Cycle))
system.cpu.storeBound                        0.902752                       # Level3:    |--Store Bound ((Count/Cycle))
system.cpu.intRegfileReads                   18750226                       # Number of integer regfile reads (Count)
system.cpu.intRegfileWrites                  10000222                       # Number of integer regfile writes (Count)
system.cpu.miscRegfileReads                 282685386                       # number of misc regfile reads (Count)
system.cpu.miscRegfileWrites                        3                       # number of misc regfile writes (Count)
system.cpu.lastCommitTick                  8612558154                       # The last tick to commit an instruction (Count)
system.cpu.MemDepUnit__0.insertedLoads        5000144                       # Number of loads inserted to the mem dependence unit. (Count)
system.cpu.MemDepUnit__0.insertedStores       2500058                       # Number of stores inserted to the mem dependence unit. (Count)
system.cpu.MemDepUnit__0.conflictingLoads      5000058                       # Number of conflicting loads. (Count)
system.cpu.MemDepUnit__0.conflictingStores      2499998                       # Number of conflicting stores. (Count)
system.cpu.MemDepUnit__0.dependentLoads      71248493                       # Number of  predicted conflicting loads. (Count)
system.cpu.MemDepUnit__1.insertedLoads              0                       # Number of loads inserted to the mem dependence unit. (Count)
system.cpu.MemDepUnit__1.insertedStores             0                       # Number of stores inserted to the mem dependence unit. (Count)
system.cpu.MemDepUnit__1.conflictingLoads            0                       # Number of conflicting loads. (Count)
system.cpu.MemDepUnit__1.conflictingStores            0                       # Number of conflicting stores. (Count)
system.cpu.MemDepUnit__1.dependentLoads             0                       # Number of  predicted conflicting loads. (Count)
system.cpu.MemDepUnit__2.insertedLoads              0                       # Number of loads inserted to the mem dependence unit. (Count)
system.cpu.MemDepUnit__2.insertedStores             0                       # Number of stores inserted to the mem dependence unit. (Count)
system.cpu.MemDepUnit__2.conflictingLoads            0                       # Number of conflicting loads. (Count)
system.cpu.MemDepUnit__2.conflictingStores            0                       # Number of conflicting stores. (Count)
system.cpu.MemDepUnit__2.dependentLoads             0                       # Number of  predicted conflicting loads. (Count)
system.cpu.MemDepUnit__3.insertedLoads              0                       # Number of loads inserted to the mem dependence unit. (Count)
system.cpu.MemDepUnit__3.insertedStores             0                       # Number of stores inserted to the mem dependence unit. (Count)
system.cpu.MemDepUnit__3.conflictingLoads            0                       # Number of conflicting loads. (Count)
system.cpu.MemDepUnit__3.conflictingStores            0                       # Number of conflicting stores. (Count)
system.cpu.MemDepUnit__3.dependentLoads             0                       # Number of  predicted conflicting loads. (Count)
system.cpu.branchPred.lookups                       0                       # Number of BP lookups (Count)
system.cpu.branchPred.condPredicted                 0                       # Number of conditional branches predicted (Count)
system.cpu.branchPred.condIncorrect                 0                       # Number of conditional branches incorrect (Count)
system.cpu.branchPred.BTBLookups                    0                       # Number of BTB lookups (Count)
system.cpu.branchPred.BTBHits                       0                       # Number of BTB hits (Count)
system.cpu.branchPred.BTBHitRatio                 nan                       # BTB Hit Ratio (Ratio)
system.cpu.branchPred.RASUsed                       0                       # Number of times the RAS was used to get a target. (Count)
system.cpu.branchPred.RASIncorrect                  0                       # Number of incorrect RAS predictions. (Count)
system.cpu.branchPred.indirectLookups               0                       # Number of indirect predictor lookups. (Count)
system.cpu.branchPred.indirectHits                  0                       # Number of indirect target hits. (Count)
system.cpu.branchPred.indirectMisses                0                       # Number of indirect misses. (Count)
system.cpu.branchPred.indirectMispredicted            0                       # Number of mispredicted indirect branches. (Count)
system.cpu.branchPred.condNum                 2499988                       # the number of cond branches (Count)
system.cpu.branchPred.uncondNum               2499983                       # the number of uncond branches (Count)
system.cpu.branchPred.returnNum               1249988                       # the number of return branches (Count)
system.cpu.branchPred.otherNum                      3                       # the number of other branches (Count)
system.cpu.branchPred.condMiss                     15                       # the number of cond branch misses (Count)
system.cpu.branchPred.uncondMiss                   20                       # the number of uncond branch misses (Count)
system.cpu.branchPred.returnMiss                   17                       # the number of return branch misses (Count)
system.cpu.branchPred.otherMiss                     3                       # the number of other branch misses (Count)
system.cpu.branchPred.branchClassCounts::cond_branch      2499988                       # branch counts by fine-grained class (Count)
system.cpu.branchPred.branchClassCounts::direct_call      1249988                       # branch counts by fine-grained class (Count)
system.cpu.branchPred.branchClassCounts::indirect_call            3                       # branch counts by fine-grained class (Count)
system.cpu.branchPred.branchClassCounts::return      1249988                       # branch counts by fine-grained class (Count)
system.cpu.branchPred.branchClassCounts::direct_jump            4                       # branch counts by fine-grained class (Count)
system.cpu.branchPred.branchClassCounts::indirect_jump            0                       # branch counts by fine-grained class (Count)
system.cpu.branchPred.branchClassCounts::unknown            0                       # branch counts by fine-grained class (Count)
system.cpu.branchPred.branchClassMisses::cond_branch           15                       # branch mispredictions by fine-grained class (Count)
system.cpu.branchPred.branchClassMisses::direct_call            0                       # branch mispredictions by fine-grained class (Count)
system.cpu.branchPred.branchClassMisses::indirect_call            3                       # branch mispredictions by fine-grained class (Count)
system.cpu.branchPred.branchClassMisses::return           17                       # branch mispredictions by fine-grained class (Count)
system.cpu.branchPred.branchClassMisses::direct_jump            0                       # branch mispredictions by fine-grained class (Count)
system.cpu.branchPred.branchClassMisses::indirect_jump            0                       # branch mispredictions by fine-grained class (Count)
system.cpu.branchPred.branchClassMisses::unknown            0                       # branch mispredictions by fine-grained class (Count)
system.cpu.branchPred.controlSquashByClass::cond_branch           19                       # commit/resolve-path squashes by branch class (Count)
system.cpu.branchPred.controlSquashByClass::direct_call            0                       # commit/resolve-path squashes by branch class (Count)
system.cpu.branchPred.controlSquashByClass::indirect_call            3                       # commit/resolve-path squashes by branch class (Count)
system.cpu.branchPred.controlSquashByClass::return           18                       # commit/resolve-path squashes by branch class (Count)
system.cpu.branchPred.controlSquashByClass::direct_jump            0                       # commit/resolve-path squashes by branch class (Count)
system.cpu.branchPred.controlSquashByClass::indirect_jump            0                       # commit/resolve-path squashes by branch class (Count)
system.cpu.branchPred.controlSquashByClass::unknown            0                       # commit/resolve-path squashes by branch class (Count)
system.cpu.branchPred.staticBranchNum              83                       # the number of all (different) static branches (Count)
system.cpu.branchPred.staticBranchNumEverTaken            0                       # the number of all (different) static branches that are once taken (Count)
system.cpu.branchPred.predsOfEachStage::0      5006959                       # the number of preds of each stage that account for final pred (Count)
system.cpu.branchPred.predsOfEachStage::1            0                       # the number of preds of each stage that account for final pred (Count)
system.cpu.branchPred.predsOfEachStage::2           65                       # the number of preds of each stage that account for final pred (Count)
system.cpu.branchPred.predsOfEachStage::3            0                       # the number of preds of each stage that account for final pred (Count)
system.cpu.branchPred.overrideBubbleNum           130                       # the number of override bubbles (Count)
system.cpu.branchPred.overrideCount                65                       # the number of overrides (Count)
system.cpu.branchPred.commitPredsFromEachStage::0      4999937                       # the number of preds of each stage that account for a committed stream (Count)
system.cpu.branchPred.commitPredsFromEachStage::1            0                       # the number of preds of each stage that account for a committed stream (Count)
system.cpu.branchPred.commitPredsFromEachStage::2            9                       # the number of preds of each stage that account for a committed stream (Count)
system.cpu.branchPred.commitPredsFromEachStage::3            0                       # the number of preds of each stage that account for a committed stream (Count)
system.cpu.branchPred.commitPredsFromEachStage::4            0                       # the number of preds of each stage that account for a committed stream (Count)
system.cpu.branchPred.commitOverrideBubbleNum           18                       # the number of override bubbles, on the commit path (Count)
system.cpu.branchPred.commitOverrideCount            9                       # the number of overrides, on the commit path (Count)
system.cpu.branchPred.overrideFallThruMismatch            7                       # Number of overrides due to validity mismatches, on commit path (Count)
system.cpu.branchPred.overrideControlAddrMismatch            0                       # Number of overrides due to control address mismatches, on commit path (Count)
system.cpu.branchPred.overrideTargetMismatch            2                       # Number of overrides due to target mismatches, on commit path (Count)
system.cpu.branchPred.overrideEndMismatch            0                       # Number of overrides due to end address mismatches, on commit path (Count)
system.cpu.branchPred.overrideHistInfoMismatch            0                       # Number of overrides due to history info mismatches, on commit path (Count)
system.cpu.branchPred.fsqEntryDist::samples     25863446                       # the distribution of number of entries in fsq (Count)
system.cpu.branchPred.fsqEntryDist::mean   255.500816                       # the distribution of number of entries in fsq (Count)
system.cpu.branchPred.fsqEntryDist::stdev     3.138193                       # the distribution of number of entries in fsq (Count)
system.cpu.branchPred.fsqEntryDist::underflows            0      0.00%      0.00% # the distribution of number of entries in fsq (Count)
system.cpu.branchPred.fsqEntryDist::0-19         1224      0.00%      0.00% # the distribution of number of entries in fsq (Count)
system.cpu.branchPred.fsqEntryDist::20-39          803      0.00%      0.01% # the distribution of number of entries in fsq (Count)
system.cpu.branchPred.fsqEntryDist::40-59          762      0.00%      0.01% # the distribution of number of entries in fsq (Count)
system.cpu.branchPred.fsqEntryDist::60-79          711      0.00%      0.01% # the distribution of number of entries in fsq (Count)
system.cpu.branchPred.fsqEntryDist::80-99          684      0.00%      0.02% # the distribution of number of entries in fsq (Count)
system.cpu.branchPred.fsqEntryDist::100-119          639      0.00%      0.02% # the distribution of number of entries in fsq (Count)
system.cpu.branchPred.fsqEntryDist::120-139          620      0.00%      0.02% # the distribution of number of entries in fsq (Count)
system.cpu.branchPred.fsqEntryDist::140-159          571      0.00%      0.02% # the distribution of number of entries in fsq (Count)
system.cpu.branchPred.fsqEntryDist::160-179          459      0.00%      0.03% # the distribution of number of entries in fsq (Count)
system.cpu.branchPred.fsqEntryDist::180-199          326      0.00%      0.03% # the distribution of number of entries in fsq (Count)
system.cpu.branchPred.fsqEntryDist::200-219          216      0.00%      0.03% # the distribution of number of entries in fsq (Count)
system.cpu.branchPred.fsqEntryDist::220-239          204      0.00%      0.03% # the distribution of number of entries in fsq (Count)
system.cpu.branchPred.fsqEntryDist::240-256     25856227     99.97%    100.00% # the distribution of number of entries in fsq (Count)
system.cpu.branchPred.fsqEntryDist::overflows            0      0.00%    100.00% # the distribution of number of entries in fsq (Count)
system.cpu.branchPred.fsqEntryDist::min_value            0                       # the distribution of number of entries in fsq (Count)
system.cpu.branchPred.fsqEntryDist::max_value          256                       # the distribution of number of entries in fsq (Count)
system.cpu.branchPred.fsqEntryDist::total     25863446                       # the distribution of number of entries in fsq (Count)
system.cpu.branchPred.fsqEntryEnqueued        5007022                       # the number of fsq entries enqueued (Count)
system.cpu.branchPred.fsqEntryCommitted       4999946                       # the number of fsq entries committed at last (Count)
system.cpu.branchPred.controlSquashFromDecode           52                       # the number of control squashes in bpu from decode (Count)
system.cpu.branchPred.controlSquashFromCommit           40                       # the number of control squashes in bpu from commit (Count)
system.cpu.branchPred.nonControlSquash              0                       # the number of non-control squashes in bpu (Count)
system.cpu.branchPred.trapSquash                    0                       # the number of trap squashes in bpu (Count)
system.cpu.branchPred.ftqNotValid                 217                       # fetch needs ftq req but ftq not valid (Count)
system.cpu.branchPred.fsqNotValid            20856504                       # ftq needs fsq req but fsq not valid (Count)
system.cpu.branchPred.fsqFullCannotEnq       20856254                       # bpu has req but fsq full cannot enqueue (Count)
system.cpu.branchPred.ftqFullCannotEnq              0                       # fsq has entry but ftq full cannot enqueue (Count)
system.cpu.branchPred.fsqFullFetchHungry     19606289                       # fetch hungry when fsq full and bpu cannot enqueue (Count)
system.cpu.branchPred.fsqEmpty                      1                       # fsq is empty (Count)
system.cpu.branchPred.commitFsqEntryHasInsts::samples      4999946                       # number of insts that commit fsq entries have (Count)
system.cpu.branchPred.commitFsqEntryHasInsts::mean     4.000041                       # number of insts that commit fsq entries have (Count)
system.cpu.branchPred.commitFsqEntryHasInsts::stdev     3.535584                       # number of insts that commit fsq entries have (Count)
system.cpu.branchPred.commitFsqEntryHasInsts::underflows            0      0.00%      0.00% # number of insts that commit fsq entries have (Count)
system.cpu.branchPred.commitFsqEntryHasInsts::0            0      0.00%      0.00% # number of insts that commit fsq entries have (Count)
system.cpu.branchPred.commitFsqEntryHasInsts::1      1249976     25.00%     25.00% # number of insts that commit fsq entries have (Count)
system.cpu.branchPred.commitFsqEntryHasInsts::2      1249980     25.00%     50.00% # number of insts that commit fsq entries have (Count)
system.cpu.branchPred.commitFsqEntryHasInsts::3      1249974     25.00%     75.00% # number of insts that commit fsq entries have (Count)
system.cpu.branchPred.commitFsqEntryHasInsts::4            6      0.00%     75.00% # number of insts that commit fsq entries have (Count)
system.cpu.branchPred.commitFsqEntryHasInsts::5            5      0.00%     75.00% # number of insts that commit fsq entries have (Count)
system.cpu.branchPred.commitFsqEntryHasInsts::6            7      0.00%     75.00% # number of insts that commit fsq entries have (Count)
system.cpu.branchPred.commitFsqEntryHasInsts::7            3      0.00%     75.00% # number of insts that commit fsq entries have (Count)
system.cpu.branchPred.commitFsqEntryHasInsts::8            2      0.00%     75.00% # number of insts that commit fsq entries have (Count)
system.cpu.branchPred.commitFsqEntryHasInsts::9            1      0.00%     75.00% # number of insts that commit fsq entries have (Count)
system.cpu.branchPred.commitFsqEntryHasInsts::10      1249976     25.00%    100.00% # number of insts that commit fsq entries have (Count)
system.cpu.branchPred.commitFsqEntryHasInsts::11            3      0.00%    100.00% # number of insts that commit fsq entries have (Count)
system.cpu.branchPred.commitFsqEntryHasInsts::12            3      0.00%    100.00% # number of insts that commit fsq entries have (Count)
system.cpu.branchPred.commitFsqEntryHasInsts::13            3      0.00%    100.00% # number of insts that commit fsq entries have (Count)
system.cpu.branchPred.commitFsqEntryHasInsts::14            1      0.00%    100.00% # number of insts that commit fsq entries have (Count)
system.cpu.branchPred.commitFsqEntryHasInsts::15            2      0.00%    100.00% # number of insts that commit fsq entries have (Count)
system.cpu.branchPred.commitFsqEntryHasInsts::16            1      0.00%    100.00% # number of insts that commit fsq entries have (Count)
system.cpu.branchPred.commitFsqEntryHasInsts::overflows            3      0.00%    100.00% # number of insts that commit fsq entries have (Count)
system.cpu.branchPred.commitFsqEntryHasInsts::min_value            1                       # number of insts that commit fsq entries have (Count)
system.cpu.branchPred.commitFsqEntryHasInsts::max_value           28                       # number of insts that commit fsq entries have (Count)
system.cpu.branchPred.commitFsqEntryHasInsts::total      4999946                       # number of insts that commit fsq entries have (Count)
system.cpu.branchPred.commitFsqEntryFetchedInsts::samples      4999946                       # number of insts that commit fsq entries fetched (Count)
system.cpu.branchPred.commitFsqEntryFetchedInsts::mean     4.000162                       # number of insts that commit fsq entries fetched (Count)
system.cpu.branchPred.commitFsqEntryFetchedInsts::stdev     3.535870                       # number of insts that commit fsq entries fetched (Count)
system.cpu.branchPred.commitFsqEntryFetchedInsts::underflows            0      0.00%      0.00% # number of insts that commit fsq entries fetched (Count)
system.cpu.branchPred.commitFsqEntryFetchedInsts::0            0      0.00%      0.00% # number of insts that commit fsq entries fetched (Count)
system.cpu.branchPred.commitFsqEntryFetchedInsts::1      1249971     25.00%     25.00% # number of insts that commit fsq entries fetched (Count)
system.cpu.branchPred.commitFsqEntryFetchedInsts::2      1249972     25.00%     50.00% # number of insts that commit fsq entries fetched (Count)
system.cpu.branchPred.commitFsqEntryFetchedInsts::3      1249971     25.00%     75.00% # number of insts that commit fsq entries fetched (Count)
system.cpu.branchPred.commitFsqEntryFetchedInsts::4            0      0.00%     75.00% # number of insts that commit fsq entries fetched (Count)
system.cpu.branchPred.commitFsqEntryFetchedInsts::5            1      0.00%     75.00% # number of insts that commit fsq entries fetched (Count)
system.cpu.branchPred.commitFsqEntryFetchedInsts::6            0      0.00%     75.00% # number of insts that commit fsq entries fetched (Count)
system.cpu.branchPred.commitFsqEntryFetchedInsts::7            1      0.00%     75.00% # number of insts that commit fsq entries fetched (Count)
system.cpu.branchPred.commitFsqEntryFetchedInsts::8            0      0.00%     75.00% # number of insts that commit fsq entries fetched (Count)
system.cpu.branchPred.commitFsqEntryFetchedInsts::9            0      0.00%     75.00% # number of insts that commit fsq entries fetched (Count)
system.cpu.branchPred.commitFsqEntryFetchedInsts::10      1249974     25.00%    100.00% # number of insts that commit fsq entries fetched (Count)
system.cpu.branchPred.commitFsqEntryFetchedInsts::11            2      0.00%    100.00% # number of insts that commit fsq entries fetched (Count)
system.cpu.branchPred.commitFsqEntryFetchedInsts::12            4      0.00%    100.00% # number of insts that commit fsq entries fetched (Count)
system.cpu.branchPred.commitFsqEntryFetchedInsts::13            6      0.00%    100.00% # number of insts that commit fsq entries fetched (Count)
system.cpu.branchPred.commitFsqEntryFetchedInsts::14            3      0.00%    100.00% # number of insts that commit fsq entries fetched (Count)
system.cpu.branchPred.commitFsqEntryFetchedInsts::15            5      0.00%    100.00% # number of insts that commit fsq entries fetched (Count)
system.cpu.branchPred.commitFsqEntryFetchedInsts::16            5      0.00%    100.00% # number of insts that commit fsq entries fetched (Count)
system.cpu.branchPred.commitFsqEntryFetchedInsts::overflows           31      0.00%    100.00% # number of insts that commit fsq entries fetched (Count)
system.cpu.branchPred.commitFsqEntryFetchedInsts::min_value            1                       # number of insts that commit fsq entries fetched (Count)
system.cpu.branchPred.commitFsqEntryFetchedInsts::max_value           29                       # number of insts that commit fsq entries fetched (Count)
system.cpu.branchPred.commitFsqEntryFetchedInsts::total      4999946                       # number of insts that commit fsq entries fetched (Count)
system.cpu.branchPred.commitFsqEntryOnlyHasOneJump            2                       # number of fsq entries with only one instruction (jump) (Count)
system.cpu.branchPred.btbHit                  4999889                       # btb hits (in predict block) (Count)
system.cpu.branchPred.btbMiss                      49                       # btb misses (in predict block) (Count)
system.cpu.branchPred.btbEntriesWithDifferentStart           55                       # number of btb entries with different start PC (Count)
system.cpu.branchPred.btbEntriesWithOnlyOneJump            0                       # number of btb entries with different start PC starting with a jump (Count)
system.cpu.branchPred.predFalseHit                  0                       # false hit detected at pred (Count)
system.cpu.branchPred.commitFalseHit                0                       # false hit detected at commit (Count)
system.cpu.branchPred.predictionBlockedForUpdate           40                       # prediction blocked for update priority (Count)
system.cpu.branchPred.abtb.predMiss              6023                       # misses encountered on prediction (Count)
system.cpu.branchPred.abtb.predHit            5001021                       # hits encountered on prediction (Count)
system.cpu.branchPred.abtb.updateMiss               0                       # misses encountered on update (Count)
system.cpu.branchPred.abtb.updateHit          5000999                       # hits encountered on update (Count)
system.cpu.branchPred.abtb.updateExisting      5001003                       # existing entries updated (Count)
system.cpu.branchPred.abtb.updateReplace           73                       # entries replaced (Count)
system.cpu.branchPred.abtb.updateReplaceValidOne            0                       # entries replaced with valid entry (Count)
system.cpu.branchPred.abtb.S0Predmiss            6008                       # misses encountered on S0 prediction, i.e. uBTB and ABTB miss (Count)
system.cpu.branchPred.abtb.S0PredUseUBTB      5001016                       # uBTB prediction used, i.e. uBTB hit (Count)
system.cpu.branchPred.abtb.S0PredUseABTB            0                       # aBTB prediction used, i.e. uBTB miss and ABTB hit (Count)
system.cpu.branchPred.abtb.allBranchHits      4999883                       # all types of branches committed that was predicted hit (Count)
system.cpu.branchPred.abtb.allBranchHitTakens      4999883                       # all types of taken branches committed was that predicted hit (Count)
system.cpu.branchPred.abtb.allBranchHitNotTakens            0                       # all types of not taken branches committed was that predicted hit (Count)
system.cpu.branchPred.abtb.allBranchMisses           88                       # all types of branches committed that was predicted miss (Count)
system.cpu.branchPred.abtb.allBranchMissTakens           58                       # all types of taken branches committed was that predicted miss (Count)
system.cpu.branchPred.abtb.allBranchMissNotTakens           30                       # all types of not taken branches committed was that predicted miss (Count)
system.cpu.branchPred.abtb.condHits           2499941                       # conditional branches committed that was predicted hit (Count)
system.cpu.branchPred.abtb.condHitTakens      2499941                       # taken conditional branches committed was that predicted hit (Count)
system.cpu.branchPred.abtb.condHitNotTakens            0                       # not taken conditional branches committed was that predicted hit (Count)
system.cpu.branchPred.abtb.condMisses              47                       # conditional branches committed that was predicted miss (Count)
system.cpu.branchPred.abtb.condMissTakens           17                       # taken conditional branches committed was that predicted miss (Count)
system.cpu.branchPred.abtb.condMissNotTakens           30                       # not taken conditional branches committed was that predicted miss (Count)
system.cpu.branchPred.abtb.condPredCorrect      2499971                       # conditional branches committed was that correctly predicted by btb (Count)
system.cpu.branchPred.abtb.condPredWrong           17                       # conditional branches committed was that mispredicted by btb (Count)
system.cpu.branchPred.abtb.uncondHits         2499942                       # unconditional branches committed that was predicted hit (Count)
system.cpu.branchPred.abtb.uncondMisses            41                       # unconditional branches committed that was predicted miss (Count)
system.cpu.branchPred.abtb.indirectHits       1249971                       # indirect branches committed that was predicted hit (Count)
system.cpu.branchPred.abtb.indirectMisses           20                       # indirect branches committed that was predicted miss (Count)
system.cpu.branchPred.abtb.indirectPredCorrect      1249970                       # indirect branches committed whose target was correctly predicted by btb (Count)
system.cpu.branchPred.abtb.indirectPredWrong           21                       # indirect branches committed whose target was mispredicted by btb (Count)
system.cpu.branchPred.abtb.callHits           1249971                       # calls committed that was predicted hit (Count)
system.cpu.branchPred.abtb.callMisses              20                       # calls committed that was predicted miss (Count)
system.cpu.branchPred.abtb.returnHits         1249971                       # returns committed that was predicted hit (Count)
system.cpu.branchPred.abtb.returnMisses            17                       # returns committed that was predicted miss (Count)
system.cpu.branchPred.ittage.predNoHitUseBTB           42                       # use BTB target when no TAGE hit on prediction (Count)
system.cpu.branchPred.ittage.predUseAlt            42                       # use alternative prediction on prediction (Count)
system.cpu.branchPred.ittage.predTargetHit            0                       # TAGE target matches actual target (verified during update) (Count)
system.cpu.branchPred.ittage.updateMispred            3                       # target misprediction on update (Count)
system.cpu.branchPred.ittage.updateAllocSuccess            3                       # successful allocation when update (Count)
system.cpu.branchPred.ittage.updateAllocFailure            0                       # allocation failure when update (Count)
system.cpu.branchPred.ittage.updateResetU            0                       # reset useful bits when update (Count)
system.cpu.branchPred.ittage.updateUseAltCorrect            0                       # use alternative prediction and correct on update (Count)
system.cpu.branchPred.ittage.predTableHits::samples            0                       # hit of each tage table on prediction (Count)
system.cpu.branchPred.ittage.predTableHits::mean          nan                       # hit of each tage table on prediction (Count)
system.cpu.branchPred.ittage.predTableHits::stdev          nan                       # hit of each tage table on prediction (Count)
system.cpu.branchPred.ittage.predTableHits::underflows            0                       # hit of each tage table on prediction (Count)
system.cpu.branchPred.ittage.predTableHits::0            0                       # hit of each tage table on prediction (Count)
system.cpu.branchPred.ittage.predTableHits::1            0                       # hit of each tage table on prediction (Count)
system.cpu.branchPred.ittage.predTableHits::2            0                       # hit of each tage table on prediction (Count)
system.cpu.branchPred.ittage.predTableHits::3            0                       # hit of each tage table on prediction (Count)
system.cpu.branchPred.ittage.predTableHits::4            0                       # hit of each tage table on prediction (Count)
system.cpu.branchPred.ittage.predTableHits::overflows            0                       # hit of each tage table on prediction (Count)
system.cpu.branchPred.ittage.predTableHits::min_value            0                       # hit of each tage table on prediction (Count)
system.cpu.branchPred.ittage.predTableHits::max_value            0                       # hit of each tage table on prediction (Count)
system.cpu.branchPred.ittage.predTableHits::total            0                       # hit of each tage table on prediction (Count)
system.cpu.branchPred.ittage.updateTableHits::samples            0                       # hit of each tage table on update (Count)
system.cpu.branchPred.ittage.updateTableHits::mean          nan                       # hit of each tage table on update (Count)
system.cpu.branchPred.ittage.updateTableHits::stdev          nan                       # hit of each tage table on update (Count)
system.cpu.branchPred.ittage.updateTableHits::underflows            0                       # hit of each tage table on update (Count)
system.cpu.branchPred.ittage.updateTableHits::0            0                       # hit of each tage table on update (Count)
system.cpu.branchPred.ittage.updateTableHits::1            0                       # hit of each tage table on update (Count)
system.cpu.branchPred.ittage.updateTableHits::2            0                       # hit of each tage table on update (Count)
system.cpu.branchPred.ittage.updateTableHits::3            0                       # hit of each tage table on update (Count)
system.cpu.branchPred.ittage.updateTableHits::4            0                       # hit of each tage table on update (Count)
system.cpu.branchPred.ittage.updateTableHits::overflows            0                       # hit of each tage table on update (Count)
system.cpu.branchPred.ittage.updateTableHits::min_value            0                       # hit of each tage table on update (Count)
system.cpu.branchPred.ittage.updateTableHits::max_value            0                       # hit of each tage table on update (Count)
system.cpu.branchPred.ittage.updateTableHits::total            0                       # hit of each tage table on update (Count)
system.cpu.branchPred.ittage.commitHits             0                       # number of indirect branch commits that hit in ITTAGE (Count)
system.cpu.branchPred.ittage.callHits               0                       # number of call commits that hit in ITTAGE (Count)
system.cpu.branchPred.ittage.commitMisses            3                       # number of indirect branch commits that missed in ITTAGE (Count)
system.cpu.branchPred.ittage.callMisses             3                       # number of call commits that missed in ITTAGE (Count)
system.cpu.branchPred.ittage.commitPredCorrect            0                       # number of indirect branch commits with correct predictions in ITTAGE (Count)
system.cpu.branchPred.ittage.commitPredWrong            3                       # number of indirect branch commits with wrong predictions in ITTAGE (Count)
system.cpu.branchPred.ittage.callPredCorrect            0                       # number of call commits with correct predictions in ITTAGE (Count)
system.cpu.branchPred.ittage.callPredWrong            3                       # number of call commits with wrong predictions in ITTAGE (Count)
system.cpu.branchPred.mbtb.newEntry               200                       # number of new btb entries generated (Count)
system.cpu.branchPred.mbtb.newEntryWithCond           37                       # number of new btb entries generated with conditional branch (Count)
system.cpu.branchPred.mbtb.newEntryWithUncond          163                       # number of new btb entries generated with unconditional branch (Count)
system.cpu.branchPred.mbtb.predMiss              5948                       # misses encountered on prediction (Count)
system.cpu.branchPred.mbtb.predHit            5001076                       # hits encountered on prediction (Count)
system.cpu.branchPred.mbtb.predHitNum        10001505                       # number of hits encountered on prediction (Count)
system.cpu.branchPred.mbtb.updateMiss              66                       # misses encountered on update (Count)
system.cpu.branchPred.mbtb.updateHit          4013107                       # hits encountered on update (Count)
system.cpu.branchPred.mbtb.updateExisting           12                       # existing entries updated (Count)
system.cpu.branchPred.mbtb.updateReplace           58                       # entries replaced (Count)
system.cpu.branchPred.mbtb.updateReplaceValidOne            0                       # entries replaced with valid entry (Count)
system.cpu.branchPred.mbtb.updateInVC               0                       # entries updated in victim cache (Count)
system.cpu.branchPred.mbtb.updateTotal             70                       # total number of entries updated (Count)
system.cpu.branchPred.mbtb.allBranchHits      4999890                       # all types of branches committed that was predicted hit (Count)
system.cpu.branchPred.mbtb.allBranchHitTakens      4999889                       # all types of taken branches committed was that predicted hit (Count)
system.cpu.branchPred.mbtb.allBranchHitNotTakens            1                       # all types of not taken branches committed was that predicted hit (Count)
system.cpu.branchPred.mbtb.allBranchMisses           81                       # all types of branches committed that was predicted miss (Count)
system.cpu.branchPred.mbtb.allBranchMissTakens           52                       # all types of taken branches committed was that predicted miss (Count)
system.cpu.branchPred.mbtb.allBranchMissNotTakens           29                       # all types of not taken branches committed was that predicted miss (Count)
system.cpu.branchPred.mbtb.condHits           2499945                       # conditional branches committed that was predicted hit (Count)
system.cpu.branchPred.mbtb.condHitTakens      2499944                       # taken conditional branches committed was that predicted hit (Count)
system.cpu.branchPred.mbtb.condHitNotTakens            1                       # not taken conditional branches committed was that predicted hit (Count)
system.cpu.branchPred.mbtb.condMisses              43                       # conditional branches committed that was predicted miss (Count)
system.cpu.branchPred.mbtb.condMissTakens           14                       # taken conditional branches committed was that predicted miss (Count)
system.cpu.branchPred.mbtb.condMissNotTakens           29                       # not taken conditional branches committed was that predicted miss (Count)
system.cpu.branchPred.mbtb.condPredCorrect      2499972                       # conditional branches committed was that correctly predicted by btb (Count)
system.cpu.branchPred.mbtb.condPredWrong           16                       # conditional branches committed was that mispredicted by btb (Count)
system.cpu.branchPred.mbtb.uncondHits         2499945                       # unconditional branches committed that was predicted hit (Count)
system.cpu.branchPred.mbtb.uncondMisses            38                       # unconditional branches committed that was predicted miss (Count)
system.cpu.branchPred.mbtb.indirectHits       1249973                       # indirect branches committed that was predicted hit (Count)
system.cpu.branchPred.mbtb.indirectMisses           18                       # indirect branches committed that was predicted miss (Count)
system.cpu.branchPred.mbtb.indirectPredCorrect      1249971                       # indirect branches committed whose target was correctly predicted by btb (Count)
system.cpu.branchPred.mbtb.indirectPredWrong           20                       # indirect branches committed whose target was mispredicted by btb (Count)
system.cpu.branchPred.mbtb.callHits           1249972                       # calls committed that was predicted hit (Count)
system.cpu.branchPred.mbtb.callMisses              19                       # calls committed that was predicted miss (Count)
system.cpu.branchPred.mbtb.returnHits         1249973                       # returns committed that was predicted hit (Count)
system.cpu.branchPred.mbtb.returnMisses            15                       # returns committed that was predicted miss (Count)
system.cpu.branchPred.mbtb.victimCacheHit            0                       # victim cache hits (Count)
system.cpu.branchPred.mbtb.predHitCount::samples      5001076                       # number of hit entries encountered on mbtb hit (Count)
system.cpu.branchPred.mbtb.predHitCount::mean     1.999871                       # number of hit entries encountered on mbtb hit (Count)
system.cpu.branchPred.mbtb.predHitCount::stdev     1.224712                       # number of hit entries encountered on mbtb hit (Count)
system.cpu.branchPred.mbtb.predHitCount::underflows            0      0.00%      0.00% # number of hit entries encountered on mbtb hit (Count)
system.cpu.branchPred.mbtb.predHitCount::0            0      0.00%      0.00% # number of hit entries encountered on mbtb hit (Count)
system.cpu.branchPred.mbtb.predHitCount::1      2500828     50.01%     50.01% # number of hit entries encountered on mbtb hit (Count)
system.cpu.branchPred.mbtb.predHitCount::2      1250151     25.00%     75.00% # number of hit entries encountered on mbtb hit (Count)
system.cpu.branchPred.mbtb.predHitCount::3           28      0.00%     75.00% # number of hit entries encountered on mbtb hit (Count)
system.cpu.branchPred.mbtb.predHitCount::4      1250054     25.00%    100.00% # number of hit entries encountered on mbtb hit (Count)
system.cpu.branchPred.mbtb.predHitCount::5           15      0.00%    100.00% # number of hit entries encountered on mbtb hit (Count)
system.cpu.branchPred.mbtb.predHitCount::6            0      0.00%    100.00% # number of hit entries encountered on mbtb hit (Count)
system.cpu.branchPred.mbtb.predHitCount::7            0      0.00%    100.00% # number of hit entries encountered on mbtb hit (Count)
system.cpu.branchPred.mbtb.predHitCount::8            0      0.00%    100.00% # number of hit entries encountered on mbtb hit (Count)
system.cpu.branchPred.mbtb.predHitCount::overflows            0      0.00%    100.00% # number of hit entries encountered on mbtb hit (Count)
system.cpu.branchPred.mbtb.predHitCount::min_value            1                       # number of hit entries encountered on mbtb hit (Count)
system.cpu.branchPred.mbtb.predHitCount::max_value            5                       # number of hit entries encountered on mbtb hit (Count)
system.cpu.branchPred.mbtb.predHitCount::total      5001076                       # number of hit entries encountered on mbtb hit (Count)
system.cpu.branchPred.mgsc.scCorrectTageWrong            0                       # number of sc predict correct and tage predict wrong (Count)
system.cpu.branchPred.mgsc.scWrongTageCorrect            0                       # number of sc predict wrong and tage predict correct (Count)
system.cpu.branchPred.mgsc.scCorrectTageCorrect            0                       # number of sc predict correct and tage predict correct (Count)
system.cpu.branchPred.mgsc.scWrongTageWrong            0                       # number of sc predict wrong and tage predict wrong (Count)
system.cpu.branchPred.mgsc.scUsed                   0                       # number of sc used (Count)
system.cpu.branchPred.mgsc.scNotUsed                0                       # number of sc not used (Count)
system.cpu.branchPred.mgsc.predHit                  0                       # number of sc prediction hit (Count)
system.cpu.branchPred.mgsc.predMiss                 0                       # number of sc prediction miss (Count)
system.cpu.branchPred.mgsc.scPredCorrect            0                       # number of sc prediction correct (Count)
system.cpu.branchPred.mgsc.scPredWrong              0                       # number of sc prediction wrong (Count)
system.cpu.branchPred.mgsc.scPredMissTaken            0                       # number of sc prediction miss taken (Count)
system.cpu.branchPred.mgsc.scPredMissNotTaken            0                       # number of sc prediction miss not taken (Count)
system.cpu.branchPred.mgsc.scPredCorrectTageWrong            0                       # number of sc prediction correct and tage wrong (Count)
system.cpu.branchPred.mgsc.scPredWrongTageCorrect            0                       # number of sc prediction wrong and tage correct (Count)
system.cpu.branchPred.microtage.predNoHitUseBim            0                       # use bimodal when no hit on prediction (Count)
system.cpu.branchPred.microtage.predUseAlt            0                       # use alt on prediction (Count)
system.cpu.branchPred.microtage.updateNoHitUseBim            0                       # use bimodal when no hit on update (Count)
system.cpu.branchPred.microtage.updateUseAlt            0                       # use alt on update (Count)
system.cpu.branchPred.microtage.updateUseAltCorrect            0                       # use alt on update and correct (Count)
system.cpu.branchPred.microtage.updateUseAltWrong            0                       # use alt on update and wrong (Count)
system.cpu.branchPred.microtage.updateAltDiffers            0                       # alt differs on update (Count)
system.cpu.branchPred.microtage.updateUseAltOnNaUpdated            0                       # use alt on na ctr updated when update (Count)
system.cpu.branchPred.microtage.updateProviderNa            0                       # provider weak when update (Count)
system.cpu.branchPred.microtage.updateUseNaCorrect            0                       # use na on update and correct (Count)
system.cpu.branchPred.microtage.updateUseNaWrong            0                       # use na on update and wrong (Count)
system.cpu.branchPred.microtage.updateUseAltOnNaCorrect            0                       # use alt on na correct when update (Count)
system.cpu.branchPred.microtage.updateUseAltOnNaWrong            0                       # use alt on na wrong when update (Count)
system.cpu.branchPred.microtage.updateAllocFailure            0                       # alloc failure when update (Count)
system.cpu.branchPred.microtage.updateAllocFailureNoValidTable            0                       # alloc failure no valid table when update (Count)
system.cpu.branchPred.microtage.updateAllocSuccess            0                       # alloc success when update (Count)
system.cpu.branchPred.microtage.updateMispred            0                       # mispred when update (Count)
system.cpu.branchPred.microtage.updateResetU            0                       # reset u when update (Count)
system.cpu.branchPred.microtage.updateBankConflict            0                       # number of bank conflicts detected (Count)
system.cpu.branchPred.microtage.updateDeferredDueToConflict            0                       # number of updates deferred due to bank conflict (retried later) (Count)
system.cpu.branchPred.microtage.updateBankConflictPerBank::0            0                       # bank conflicts per bank (Count)
system.cpu.branchPred.microtage.updateBankConflictPerBank::1            0                       # bank conflicts per bank (Count)
system.cpu.branchPred.microtage.updateBankConflictPerBank::2            0                       # bank conflicts per bank (Count)
system.cpu.branchPred.microtage.updateBankConflictPerBank::3            0                       # bank conflicts per bank (Count)
system.cpu.branchPred.microtage.updateAccessPerBank::0            0                       # update accesses per bank (Count)
system.cpu.branchPred.microtage.updateAccessPerBank::1            0                       # update accesses per bank (Count)
system.cpu.branchPred.microtage.updateAccessPerBank::2            0                       # update accesses per bank (Count)
system.cpu.branchPred.microtage.updateAccessPerBank::3            0                       # update accesses per bank (Count)
system.cpu.branchPred.microtage.predAccessPerBank::0            0                       # prediction accesses per bank (Count)
system.cpu.branchPred.microtage.predAccessPerBank::1            0                       # prediction accesses per bank (Count)
system.cpu.branchPred.microtage.predAccessPerBank::2            0                       # prediction accesses per bank (Count)
system.cpu.branchPred.microtage.predAccessPerBank::3            0                       # prediction accesses per bank (Count)
system.cpu.branchPred.microtage.predTableHits::samples            0                       # hit of each tage table on prediction (Count)
system.cpu.branchPred.microtage.predTableHits::mean          nan                       # hit of each tage table on prediction (Count)
system.cpu.branchPred.microtage.predTableHits::stdev          nan                       # hit of each tage table on prediction (Count)
system.cpu.branchPred.microtage.predTableHits::underflows            0                       # hit of each tage table on prediction (Count)
system.cpu.branchPred.microtage.predTableHits::0            0                       # hit of each tage table on prediction (Count)
system.cpu.branchPred.microtage.predTableHits::overflows            0                       # hit of each tage table on prediction (Count)
system.cpu.branchPred.microtage.predTableHits::min_value            0                       # hit of each tage table on prediction (Count)
system.cpu.branchPred.microtage.predTableHits::max_value            0                       # hit of each tage table on prediction (Count)
system.cpu.branchPred.microtage.predTableHits::total            0                       # hit of each tage table on prediction (Count)
system.cpu.branchPred.microtage.updateTableHits::samples            0                       # hit of each tage table on update (Count)
system.cpu.branchPred.microtage.updateTableHits::mean          nan                       # hit of each tage table on update (Count)
system.cpu.branchPred.microtage.updateTableHits::stdev          nan                       # hit of each tage table on update (Count)
system.cpu.branchPred.microtage.updateTableHits::underflows            0                       # hit of each tage table on update (Count)
system.cpu.branchPred.microtage.updateTableHits::0            0                       # hit of each tage table on update (Count)
system.cpu.branchPred.microtage.updateTableHits::overflows            0                       # hit of each tage table on update (Count)
system.cpu.branchPred.microtage.updateTableHits::min_value            0                       # hit of each tage table on update (Count)
system.cpu.branchPred.microtage.updateTableHits::max_value            0                       # hit of each tage table on update (Count)
system.cpu.branchPred.microtage.updateTableHits::total            0                       # hit of each tage table on update (Count)
system.cpu.branchPred.microtage.updateTableMispreds            0                       # mispreds of each table when update (Count)
system.cpu.branchPred.microtage.condPredwrong            0                       # number of conditional branch mispredictions committed (Count)
system.cpu.branchPred.microtage.condMissTakens            0                       # number of conditional branch mispredictions committed with no prediction (Count)
system.cpu.branchPred.microtage.condCorrect            0                       # number of conditional branch correct predictions committed (Count)
system.cpu.branchPred.microtage.condMissNoTakens            0                       # number of conditional branch correct predictions committed with no prediction (Count)
system.cpu.branchPred.microtage.predHit             0                       # number of conditional branch predictions that hit (Count)
system.cpu.branchPred.microtage.predMiss            0                       # number of conditional branch predictions that miss (Count)
system.cpu.branchPred.ras.PredWrong                 0                       # number of RAS mispredictions (Count)
system.cpu.branchPred.ras.MispredWithSctr            0                       # number of RAS mispredictions when sctr > 0 (Count)
system.cpu.branchPred.ras.PredCorrect               0                       # number of RAS correct predictions (Count)
system.cpu.branchPred.ras.CorrectWithSctr            0                       # number of RAS correct predictions when sctr > 0 (Count)
system.cpu.branchPred.ras.Pushes                    0                       # number of RAS pushes (Count)
system.cpu.branchPred.ras.Pops                      0                       # number of RAS pops (Count)
system.cpu.branchPred.tage.predNoHitUseBim     10001204                       # use bimodal when no hit on prediction (Count)
system.cpu.branchPred.tage.predUseAlt        10001204                       # use alt on prediction (Count)
system.cpu.branchPred.tage.updateNoHitUseBim            1                       # use bimodal when no hit on update (Count)
system.cpu.branchPred.tage.updateUseAlt             1                       # use alt on update (Count)
system.cpu.branchPred.tage.updateUseAltCorrect            1                       # use alt on update and correct (Count)
system.cpu.branchPred.tage.updateUseAltWrong            0                       # use alt on update and wrong (Count)
system.cpu.branchPred.tage.updateAltDiffers            0                       # alt differs on update (Count)
system.cpu.branchPred.tage.updateUseAltOnNaUpdated            0                       # use alt on na ctr updated when update (Count)
system.cpu.branchPred.tage.updateProviderNa            0                       # provider weak when update (Count)
system.cpu.branchPred.tage.updateUseNaCorrect            0                       # use na on update and correct (Count)
system.cpu.branchPred.tage.updateUseNaWrong            0                       # use na on update and wrong (Count)
system.cpu.branchPred.tage.updateUseAltOnNaCorrect            0                       # use alt on na correct when update (Count)
system.cpu.branchPred.tage.updateUseAltOnNaWrong            0                       # use alt on na wrong when update (Count)
system.cpu.branchPred.tage.updateAllocFailure            0                       # alloc failure when update (Count)
system.cpu.branchPred.tage.updateAllocFailureNoValidTable            0                       # alloc failure no valid table when update (Count)
system.cpu.branchPred.tage.updateAllocSuccess            0                       # alloc success when update (Count)
system.cpu.branchPred.tage.updateMispred            0                       # mispred when update (Count)
system.cpu.branchPred.tage.updateResetU             0                       # reset u when update (Count)
system.cpu.branchPred.tage.updateBankConflict      1250378                       # number of bank conflicts detected (Count)
system.cpu.branchPred.tage.updateDeferredDueToConflict      1250378                       # number of updates deferred due to bank conflict (retried later) (Count)
system.cpu.branchPred.tage.updateBankConflictPerBank::0           76                       # bank conflicts per bank (Count)
system.cpu.branchPred.tage.updateBankConflictPerBank::1            1                       # bank conflicts per bank (Count)
system.cpu.branchPred.tage.updateBankConflictPerBank::2            0                       # bank conflicts per bank (Count)
system.cpu.branchPred.tage.updateBankConflictPerBank::3      1250301                       # bank conflicts per bank (Count)
system.cpu.branchPred.tage.updateAccessPerBank::0      1250073                       # update accesses per bank (Count)
system.cpu.branchPred.tage.updateAccessPerBank::1            7                       # update accesses per bank (Count)
system.cpu.branchPred.tage.updateAccessPerBank::2           15                       # update accesses per bank (Count)
system.cpu.branchPred.tage.updateAccessPerBank::3      4013456                       # update accesses per bank (Count)
system.cpu.branchPred.tage.predAccessPerBank::0      1256091                       # prediction accesses per bank (Count)
system.cpu.branchPred.tage.predAccessPerBank::1           91                       # prediction accesses per bank (Count)
system.cpu.branchPred.tage.predAccessPerBank::2           92                       # prediction accesses per bank (Count)
system.cpu.branchPred.tage.predAccessPerBank::3      3750750                       # prediction accesses per bank (Count)
system.cpu.branchPred.tage.predTableHits::samples            0                       # hit of each tage table on prediction (Count)
system.cpu.branchPred.tage.predTableHits::mean          nan                       # hit of each tage table on prediction (Count)
system.cpu.branchPred.tage.predTableHits::stdev          nan                       # hit of each tage table on prediction (Count)
system.cpu.branchPred.tage.predTableHits::underflows            0                       # hit of each tage table on prediction (Count)
system.cpu.branchPred.tage.predTableHits::0            0                       # hit of each tage table on prediction (Count)
system.cpu.branchPred.tage.predTableHits::1            0                       # hit of each tage table on prediction (Count)
system.cpu.branchPred.tage.predTableHits::2            0                       # hit of each tage table on prediction (Count)
system.cpu.branchPred.tage.predTableHits::3            0                       # hit of each tage table on prediction (Count)
system.cpu.branchPred.tage.predTableHits::4            0                       # hit of each tage table on prediction (Count)
system.cpu.branchPred.tage.predTableHits::5            0                       # hit of each tage table on prediction (Count)
system.cpu.branchPred.tage.predTableHits::6            0                       # hit of each tage table on prediction (Count)
system.cpu.branchPred.tage.predTableHits::7            0                       # hit of each tage table on prediction (Count)
system.cpu.branchPred.tage.predTableHits::overflows            0                       # hit of each tage table on prediction (Count)
system.cpu.branchPred.tage.predTableHits::min_value            0                       # hit of each tage table on prediction (Count)
system.cpu.branchPred.tage.predTableHits::max_value            0                       # hit of each tage table on prediction (Count)
system.cpu.branchPred.tage.predTableHits::total            0                       # hit of each tage table on prediction (Count)
system.cpu.branchPred.tage.updateTableHits::samples            0                       # hit of each tage table on update (Count)
system.cpu.branchPred.tage.updateTableHits::mean          nan                       # hit of each tage table on update (Count)
system.cpu.branchPred.tage.updateTableHits::stdev          nan                       # hit of each tage table on update (Count)
system.cpu.branchPred.tage.updateTableHits::underflows            0                       # hit of each tage table on update (Count)
system.cpu.branchPred.tage.updateTableHits::0            0                       # hit of each tage table on update (Count)
system.cpu.branchPred.tage.updateTableHits::1            0                       # hit of each tage table on update (Count)
system.cpu.branchPred.tage.updateTableHits::2            0                       # hit of each tage table on update (Count)
system.cpu.branchPred.tage.updateTableHits::3            0                       # hit of each tage table on update (Count)
system.cpu.branchPred.tage.updateTableHits::4            0                       # hit of each tage table on update (Count)
system.cpu.branchPred.tage.updateTableHits::5            0                       # hit of each tage table on update (Count)
system.cpu.branchPred.tage.updateTableHits::6            0                       # hit of each tage table on update (Count)
system.cpu.branchPred.tage.updateTableHits::7            0                       # hit of each tage table on update (Count)
system.cpu.branchPred.tage.updateTableHits::overflows            0                       # hit of each tage table on update (Count)
system.cpu.branchPred.tage.updateTableHits::min_value            0                       # hit of each tage table on update (Count)
system.cpu.branchPred.tage.updateTableHits::max_value            0                       # hit of each tage table on update (Count)
system.cpu.branchPred.tage.updateTableHits::total            0                       # hit of each tage table on update (Count)
system.cpu.branchPred.tage.updateTableMispreds::0            0                       # mispreds of each table when update (Count)
system.cpu.branchPred.tage.updateTableMispreds::1            0                       # mispreds of each table when update (Count)
system.cpu.branchPred.tage.updateTableMispreds::2            0                       # mispreds of each table when update (Count)
system.cpu.branchPred.tage.updateTableMispreds::3            0                       # mispreds of each table when update (Count)
system.cpu.branchPred.tage.updateTableMispreds::4            0                       # mispreds of each table when update (Count)
system.cpu.branchPred.tage.updateTableMispreds::5            0                       # mispreds of each table when update (Count)
system.cpu.branchPred.tage.updateTableMispreds::6            0                       # mispreds of each table when update (Count)
system.cpu.branchPred.tage.updateTableMispreds::7            0                       # mispreds of each table when update (Count)
system.cpu.branchPred.tage.condPredwrong           15                       # number of conditional branch mispredictions committed (Count)
system.cpu.branchPred.tage.condMissTakens           14                       # number of conditional branch mispredictions committed with no prediction (Count)
system.cpu.branchPred.tage.condCorrect        2499973                       # number of conditional branch correct predictions committed (Count)
system.cpu.branchPred.tage.condMissNoTakens           29                       # number of conditional branch correct predictions committed with no prediction (Count)
system.cpu.branchPred.tage.predHit            2499945                       # number of conditional branch predictions that hit (Count)
system.cpu.branchPred.tage.predMiss                43                       # number of conditional branch predictions that miss (Count)
system.cpu.branchPred.ubtb.predMiss              6008                       # misses encountered on prediction (Count)
system.cpu.branchPred.ubtb.predHit            5001016                       # hits encountered on prediction (Count)
system.cpu.branchPred.ubtb.updateMiss              55                       # misses encountered on update (Count)
system.cpu.branchPred.ubtb.updateHit          4999882                       # hits encountered on update (Count)
system.cpu.branchPred.ubtb.s3UpdateHits       5001076                       # hits encountered on S3 update (Count)
system.cpu.branchPred.ubtb.s3UpdateMisses            0                       # misses encountered on S3 update (Count)
system.cpu.branchPred.ubtb.allBranchHits      4999886                       # all types of branches committed that was predicted hit (Count)
system.cpu.branchPred.ubtb.allBranchHitTakens      4999886                       # all types of taken branches committed was that predicted hit (Count)
system.cpu.branchPred.ubtb.allBranchHitNotTakens            0                       # all types of not taken branches committed was that predicted hit (Count)
system.cpu.branchPred.ubtb.allBranchMisses           85                       # all types of branches committed that was predicted miss (Count)
system.cpu.branchPred.ubtb.allBranchMissTakens           55                       # all types of taken branches committed was that predicted miss (Count)
system.cpu.branchPred.ubtb.allBranchMissNotTakens           30                       # all types of not taken branches committed was that predicted miss (Count)
system.cpu.branchPred.ubtb.condHits           2499941                       # conditional branches committed that was predicted hit (Count)
system.cpu.branchPred.ubtb.condHitTakens      2499941                       # taken conditional branches committed was that predicted hit (Count)
system.cpu.branchPred.ubtb.condHitNotTakens            0                       # not taken conditional branches committed was that predicted hit (Count)
system.cpu.branchPred.ubtb.condMisses              47                       # conditional branches committed that was predicted miss (Count)
system.cpu.branchPred.ubtb.condMissTakens           17                       # taken conditional branches committed was that predicted miss (Count)
system.cpu.branchPred.ubtb.condMissNotTakens           30                       # not taken conditional branches committed was that predicted miss (Count)
system.cpu.branchPred.ubtb.condPredCorrect      2499971                       # conditional branches committed was that correctly predicted by btb (Count)
system.cpu.branchPred.ubtb.condPredWrong           17                       # conditional branches committed was that mispredicted by btb (Count)
system.cpu.branchPred.ubtb.uncondHits         2499945                       # unconditional branches committed that was predicted hit (Count)
system.cpu.branchPred.ubtb.uncondMisses            38                       # unconditional branches committed that was predicted miss (Count)
system.cpu.branchPred.ubtb.indirectHits       1249973                       # indirect branches committed that was predicted hit (Count)
system.cpu.branchPred.ubtb.indirectMisses           18                       # indirect branches committed that was predicted miss (Count)
system.cpu.branchPred.ubtb.indirectPredCorrect      1249969                       # indirect branches committed whose target was correctly predicted by btb (Count)
system.cpu.branchPred.ubtb.indirectPredWrong           22                       # indirect branches committed whose target was mispredicted by btb (Count)
system.cpu.branchPred.ubtb.callHits           1249972                       # calls committed that was predicted hit (Count)
system.cpu.branchPred.ubtb.callMisses              19                       # calls committed that was predicted miss (Count)
system.cpu.branchPred.ubtb.returnHits         1249973                       # returns committed that was predicted hit (Count)
system.cpu.branchPred.ubtb.returnMisses            15                       # returns committed that was predicted miss (Count)
system.cpu.branchPred.ubtb.s1Hits3FallThrough            0                       # s1 hits s3 predicted fall through (Count)
system.cpu.branchPred.ubtb.s1Misses3Taken           60                       # s1 misses s3 predicted taken (Count)
system.cpu.branchPred.ubtb.s1Hits3Taken       5001016                       # s1 hits s3 predicted taken (Count)
system.cpu.branchPred.ubtb.s1Misses3FallThrough            0                       # s1 misses s3 predicted fall through (Count)
system.cpu.branchPred.ubtb.s1InvalidatedEntries            0                       # s1 invalidated entries (Count)
system.cpu.commit.commitNonSpecStalls         1250002                       # The number of times commit has been forced to stall to communicate backwards (Count)
system.cpu.commit.recovery_bubble               14632                       # Unutilized issue-pipeline slots due to recovery from earlier miss-speculation (Unspecified)
system.cpu.commit.branchMispredicts                40                       # The number of times a branch was mispredicted (Count)
system.cpu.commit.numCommittedDist::samples     25863478                       # Number of insts commited each cycle (Count)
system.cpu.commit.numCommittedDist::mean     0.773292                       # Number of insts commited each cycle (Count)
system.cpu.commit.numCommittedDist::stdev     1.913159                       # Number of insts commited each cycle (Count)
system.cpu.commit.numCommittedDist::0        20468659     79.14%     79.14% # Number of insts commited each cycle (Count)
system.cpu.commit.numCommittedDist::1         1644808      6.36%     85.50% # Number of insts commited each cycle (Count)
system.cpu.commit.numCommittedDist::2              39      0.00%     85.50% # Number of insts commited each cycle (Count)
system.cpu.commit.numCommittedDist::3         1644710      6.36%     91.86% # Number of insts commited each cycle (Count)
system.cpu.commit.numCommittedDist::4          855263      3.31%     95.17% # Number of insts commited each cycle (Count)
system.cpu.commit.numCommittedDist::5              10      0.00%     95.17% # Number of insts commited each cycle (Count)
system.cpu.commit.numCommittedDist::6              10      0.00%     95.17% # Number of insts commited each cycle (Count)
system.cpu.commit.numCommittedDist::7               2      0.00%     95.17% # Number of insts commited each cycle (Count)
system.cpu.commit.numCommittedDist::8         1249977      4.83%    100.00% # Number of insts commited each cycle (Count)
system.cpu.commit.numCommittedDist::max_value            8                       # Number of insts commited each cycle (Count)
system.cpu.commit.numCommittedDist::total     25863478                       # Number of insts commited each cycle (Count)
system.cpu.commit.instsCommitted             20000002                       # Number of instructions committed (Count)
system.cpu.commit.pagefaulttimes                    0                       # Number of pagefaulttimes (Count)
system.cpu.commit.opsCommitted               20000008                       # Number of ops (including micro ops) committed (Count)
system.cpu.commit.memRefs                     7499966                       # Number of memory references committed (Count)
system.cpu.commit.loads                       4999966                       # Number of loads committed (Count)
system.cpu.commit.amos                              3                       # Number of atomic instructions committed (Count)
system.cpu.commit.membars                     1249983                       # Number of memory barriers committed (Count)
system.cpu.commit.branches                    4999971                       # Number of branches committed (Count)
system.cpu.commit.vectorInstructions                0                       # Number of committed Vector instructions. (Count)
system.cpu.commit.floating                          0                       # Number of committed floating point instructions. (Count)
system.cpu.commit.integer                    17500047                       # Number of committed integer instructions. (Count)
system.cpu.commit.functionCalls               1249991                       # Number of function calls committed. (Count)
system.cpu.commit.committedInstType_0::No_OpClass      1249995      6.25%      6.25% # Class of committed instruction (Count)
system.cpu.commit.committedInstType_0::IntAlu      5000070     25.00%     31.25% # Class of committed instruction (Count)
system.cpu.commit.committedInstType_0::IntBr      2499988     12.50%     43.75% # Class of committed instruction (Count)
system.cpu.commit.committedInstType_0::IntJp      2500007     12.50%     56.25% # Class of committed instruction (Count)
system.cpu.commit.committedInstType_0::IntMult            2      0.00%     56.25% # Class of committed instruction (Count)
system.cpu.commit.committedInstType_0::IntDiv            3      0.00%     56.25% # Class of committed instruction (Count)
system.cpu.commit.committedInstType_0::Int2Fp            0      0.00%     56.25% # Class of committed instruction (Count)
system.cpu.commit.committedInstType_0::StoreData            0      0.00%     56.25% # Class of committed instruction (Count)
system.cpu.commit.committedInstType_0::FloatAdd            0      0.00%     56.25% # Class of committed instruction (Count)
system.cpu.commit.committedInstType_0::FloatMult            0      0.00%     56.25% # Class of committed instruction (Count)
system.cpu.commit.committedInstType_0::FloatMultAcc            0      0.00%     56.25% # Class of committed instruction (Count)
system.cpu.commit.committedInstType_0::FloatDiv            0      0.00%     56.25% # Class of committed instruction (Count)
system.cpu.commit.committedInstType_0::FloatSqrt            0      0.00%     56.25% # Class of committed instruction (Count)
system.cpu.commit.committedInstType_0::FloatCmp            0      0.00%     56.25% # Class of committed instruction (Count)
system.cpu.commit.committedInstType_0::FloatCvt            0      0.00%     56.25% # Class of committed instruction (Count)
system.cpu.commit.committedInstType_0::FloatMv            0      0.00%     56.25% # Class of committed instruction (Count)
system.cpu.commit.committedInstType_0::FloatMisc            0      0.00%     56.25% # Class of committed instruction (Count)
system.cpu.commit.committedInstType_0::IprAccess            0      0.00%     56.25% # Class of committed instruction (Count)
system.cpu.commit.committedInstType_0::InstPrefetch            0      0.00%     56.25% # Class of committed instruction (Count)
system.cpu.commit.committedInstType_0::MemRead      6249943     31.25%     87.50% # Class of committed instruction (Count)
system.cpu.commit.committedInstType_0::FloatMemRead            0      0.00%     87.50% # Class of committed instruction (Count)
system.cpu.commit.committedInstType_0::VectorUnitStrideLoad            0      0.00%     87.50% # Class of committed instruction (Count)
system.cpu.commit.committedInstType_0::VectorSegUnitStrideLoad            0      0.00%     87.50% # Class of committed instruction (Count)
system.cpu.commit.committedInstType_0::VectorUnitStrideMaskLoad            0      0.00%     87.50% # Class of committed instruction (Count)
system.cpu.commit.committedInstType_0::VectorSegUnitStrideMaskLoad            0      0.00%     87.50% # Class of committed instruction (Count)
system.cpu.commit.committedInstType_0::VectorStridedLoad            0      0.00%     87.50% # Class of committed instruction (Count)
system.cpu.commit.committedInstType_0::VectorSegStridedLoad            0      0.00%     87.50% # Class of committed instruction (Count)
system.cpu.commit.committedInstType_0::VectorIndexedLoad            0      0.00%     87.50% # Class of committed instruction (Count)
system.cpu.commit.committedInstType_0::VectorSegIndexedLoad            0      0.00%     87.50% # Class of committed instruction (Count)
system.cpu.commit.committedInstType_0::VectorUnitStrideFaultOnlyFirstLoad            0      0.00%     87.50% # Class of committed instruction (Count)
system.cpu.commit.committedInstType_0::VectorWholeRegisterLoad            0      0.00%     87.50% # Class of committed instruction (Count)
system.cpu.commit.committedInstType_0::MemWrite      2499997     12.50%    100.00% # Class of committed instruction (Count)
system.cpu.commit.committedInstType_0::FloatMemWrite            0      0.00%    100.00% # Class of committed instruction (Count)
system.cpu.commit.committedInstType_0::MemAtomic            3      0.00%    100.00% # Class of committed instruction (Count)
system.cpu.commit.committedInstType_0::VectorUnitStrideStore            0      0.00%    100.00% # Class of committed instruction (Count)
system.cpu.commit.committedInstType_0::VectorSegUnitStrideStore            0      0.00%    100.00% # Class of committed instruction (Count)
system.cpu.commit.committedInstType_0::VectorUnitStrideMaskStore            0      0.00%    100.00% # Class of committed instruction (Count)
system.cpu.commit.committedInstType_0::VectorStridedStore            0      0.00%    100.00% # Class of committed instruction (Count)
system.cpu.commit.committedInstType_0::VectorIndexedStore            0      0.00%    100.00% # Class of committed instruction (Count)
[...]
system.l2_wrappers.slices3.inner_cache.tags.occupanciesTaskId::1024           25                       # Occupied blocks per task id (Count)
system.l2_wrappers.slices3.inner_cache.tags.ageTaskId_1024::4           25                       # Occupied blocks per task id, per block age (Count)
system.l2_wrappers.slices3.inner_cache.tags.ratioOccsTaskId::1024     0.006104                       # Ratio of occupied blocks and all blocks, per task id (Ratio)
system.l2_wrappers.slices3.inner_cache.tags.tagAccesses            0                       # Number of tag accesses (Count)
system.l2_wrappers.slices3.inner_cache.tags.dataAccesses            0                       # Number of data accesses (Count)
system.l2_wrappers.slices3.inner_cache.tags.power_state.pwrStateResidencyTicks::UNDEFINED   8609802912                       # Cumulative time (in ticks) in various power states (Tick)
system.l2_wrappers.slices3.power_state.pwrStateResidencyTicks::UNDEFINED   8609802912                       # Cumulative time (in ticks) in various power states (Tick)
system.l2_wrappers.xbar.snoops                      0                       # Total snoops (Count)
system.l2_wrappers.xbar.snoopTraffic                0                       # Total snoop traffic (Byte)
system.l2_wrappers.xbar.snoopFanout::samples            0                       # Request fanout histogram (Count)
system.l2_wrappers.xbar.snoopFanout::mean          nan                       # Request fanout histogram (Count)
system.l2_wrappers.xbar.snoopFanout::stdev          nan                       # Request fanout histogram (Count)
system.l2_wrappers.xbar.snoopFanout::underflows            0                       # Request fanout histogram (Count)
system.l2_wrappers.xbar.snoopFanout::0              0                       # Request fanout histogram (Count)
system.l2_wrappers.xbar.snoopFanout::1              0                       # Request fanout histogram (Count)
system.l2_wrappers.xbar.snoopFanout::2              0                       # Request fanout histogram (Count)
system.l2_wrappers.xbar.snoopFanout::3              0                       # Request fanout histogram (Count)
system.l2_wrappers.xbar.snoopFanout::4              0                       # Request fanout histogram (Count)
system.l2_wrappers.xbar.snoopFanout::overflows            0                       # Request fanout histogram (Count)
system.l2_wrappers.xbar.snoopFanout::min_value            0                       # Request fanout histogram (Count)
system.l2_wrappers.xbar.snoopFanout::max_value            0                       # Request fanout histogram (Count)
system.l2_wrappers.xbar.snoopFanout::total            0                       # Request fanout histogram (Count)
system.l2_wrappers.xbar.power_state.pwrStateResidencyTicks::UNDEFINED   8609802912                       # Cumulative time (in ticks) in various power states (Tick)
system.l2_wrappers.xbar.snoop_filter.totRequests            0                       # Total number of requests made to the snoop filter. (Count)
system.l2_wrappers.xbar.snoop_filter.hitSingleRequests            0                       # Number of requests hitting in the snoop filter with a single holder of the requested data. (Count)
system.l2_wrappers.xbar.snoop_filter.hitMultiRequests            0                       # Number of requests hitting in the snoop filter with multiple (>1) holders of the requested data. (Count)
system.l2_wrappers.xbar.snoop_filter.totSnoops            0                       # Total number of snoops made to the snoop filter. (Count)
system.l2_wrappers.xbar.snoop_filter.hitSingleSnoops            0                       # Number of snoops hitting in the snoop filter with a single holder of the requested data. (Count)
system.l2_wrappers.xbar.snoop_filter.hitMultiSnoops            0                       # Number of snoops hitting in the snoop filter with multiple (>1) holders of the requested data. (Count)
system.l3.blockedCycles::no_mshrs                   0                       # number of cycles access was blocked (Cycle)
system.l3.blockedCycles::no_targets                 0                       # number of cycles access was blocked (Cycle)
system.l3.blockedCauses::no_mshrs                   0                       # number of times access was blocked (Count)
system.l3.blockedCauses::no_WriteBuffer             0                       # number of times access was blocked (Count)
system.l3.blockedCauses::no_targets                 0                       # number of times access was blocked (Count)
system.l3.avgBlocked::no_mshrs                    nan                       # average number of cycles each access was blocked ((Cycle/Count))
system.l3.avgBlocked::no_targets                  nan                       # average number of cycles each access was blocked ((Cycle/Count))
system.l3.replacements                              0                       # number of replacements (Count)
system.l3.bytesRecv                                 0                       # number of bytes received from lower cache. (Count)
system.l3.multimshr                                 0                       # this cycle needs visit multi slice l2 cacheblock (Count)
system.l3.multicacheline                            0                       # this cycle visit multi cacheblock (Count)
system.l3.mshrinsert                                0                       # this cycle visit cacheblock (Count)
system.l3.wayPreHitTimes                            0                       # number of wayPreHitTimes (Count)
system.l3.wayPreIndexHitTimes                       0                       # number of wayPreIndexHitTimes (Count)
system.l3.wayPreDoubleHitTimes                      0                       # number of wayPreDoubleHitTimes (Count)
system.l3.wayPreTimes                               0                       # number of wayPreTimes (Count)
system.l3.totalWayPreAccesses                       0                       # number of totalWayPreAccesses (Count)
system.l3.totalWayPreSuccesses                      0                       # number of totalWayPreSuccesses (Count)
system.l3.deadBlockReplacements                     0                       # number of dead block replacements (Count)
system.l3.liveBlockReplacements                     0                       # number of live block replacements (Count)
system.l3.squashedDeadBlockReplacements             0                       # number of squashed dead block replacements (Count)
system.l3.squashedLiveBlockReplacements             0                       # number of squashed live block replacements (Count)
system.l3.squashedDemandHits                        0                       # number of squashed inst block demand hits (Count)
system.l3.loadTagReadFails                          0                       # number of load Tag read fail because of prefetcher (Count)
system.l3.MSHRArbFails                              0                       # number of MSHR arbitration fails (one miss per cycle) (Count)
system.l3.MSHRAliasFails                            0                       # number of MSHR Alias fails (VA diff) (Count)
system.l3.FindHitInWriteBuffer                      0                       # number of hits in write buffer when missing in cache (Count)
system.l3.prefetchTagReadFails                      0                       # number of prefetch req Tag read fail because of load (Count)
system.l3.power_state.pwrStateResidencyTicks::UNDEFINED   8609802912                       # Cumulative time (in ticks) in various power states (Tick)
system.l3.tags.tagsInUse                            0                       # Average ticks per tags in use ((Tick/Count))
system.l3.tags.totalRefs                            0                       # Total number of references to valid blocks. (Count)
system.l3.tags.sampledRefs                          0                       # Sample count of references to valid blocks. (Count)
system.l3.tags.avgRefs                            nan                       # Average number of references to valid blocks. ((Count/Count))
system.l3.tags.warmupTick                           0                       # The tick when the warmup percentage was hit. (Tick)
system.l3.tags.tagAccesses                          0                       # Number of tag accesses (Count)
system.l3.tags.dataAccesses                         0                       # Number of data accesses (Count)
system.l3.tags.power_state.pwrStateResidencyTicks::UNDEFINED   8609802912                       # Cumulative time (in ticks) in various power states (Tick)
system.lint.power_state.pwrStateResidencyTicks::UNDEFINED   8609802912                       # Cumulative time (in ticks) in various power states (Tick)
system.mem_ctrls.bytesRead::cpu.inst             5440                       # Number of bytes read from this memory (Byte)
system.mem_ctrls.bytesRead::cpu.data             1728                       # Number of bytes read from this memory (Byte)
system.mem_ctrls.bytesRead::total                7168                       # Number of bytes read from this memory (Byte)
system.mem_ctrls.bytesInstRead::cpu.inst         5440                       # Number of instructions bytes read from this memory (Byte)
system.mem_ctrls.bytesInstRead::total            5440                       # Number of instructions bytes read from this memory (Byte)
system.mem_ctrls.numReads::cpu.inst                85                       # Number of read requests responded to by this memory (Count)
system.mem_ctrls.numReads::cpu.data                27                       # Number of read requests responded to by this memory (Count)
system.mem_ctrls.numReads::total                  112                       # Number of read requests responded to by this memory (Count)
system.mem_ctrls.bwRead::cpu.inst              631838                       # Total read bandwidth from this memory ((Byte/Second))
system.mem_ctrls.bwRead::cpu.data              200701                       # Total read bandwidth from this memory ((Byte/Second))
system.mem_ctrls.bwRead::total                 832539                       # Total read bandwidth from this memory ((Byte/Second))
system.mem_ctrls.bwInstRead::cpu.inst          631838                       # Instruction read bandwidth from this memory ((Byte/Second))
system.mem_ctrls.bwInstRead::total             631838                       # Instruction read bandwidth from this memory ((Byte/Second))
system.mem_ctrls.bwTotal::cpu.inst             631838                       # Total bandwidth to/from this memory ((Byte/Second))
system.mem_ctrls.bwTotal::cpu.data             200701                       # Total bandwidth to/from this memory ((Byte/Second))
system.mem_ctrls.bwTotal::total                832539                       # Total bandwidth to/from this memory ((Byte/Second))
system.mem_ctrls.power_state.pwrStateResidencyTicks::UNDEFINED  17222361066                       # Cumulative time (in ticks) in various power states (Tick)
system.membus.snoops                                0                       # Total snoops (Count)
system.membus.snoopTraffic                          0                       # Total snoop traffic (Byte)
system.membus.snoopFanout::samples                  0                       # Request fanout histogram (Count)
system.membus.snoopFanout::mean                   nan                       # Request fanout histogram (Count)
system.membus.snoopFanout::stdev                  nan                       # Request fanout histogram (Count)
system.membus.snoopFanout::underflows               0                       # Request fanout histogram (Count)
system.membus.snoopFanout::0                        0                       # Request fanout histogram (Count)
system.membus.snoopFanout::1                        0                       # Request fanout histogram (Count)
system.membus.snoopFanout::overflows                0                       # Request fanout histogram (Count)
system.membus.snoopFanout::min_value                0                       # Request fanout histogram (Count)
system.membus.snoopFanout::max_value                0                       # Request fanout histogram (Count)
system.membus.snoopFanout::total                    0                       # Request fanout histogram (Count)
system.membus.badaddr_responder.power_state.pwrStateResidencyTicks::UNDEFINED   8609802912                       # Cumulative time (in ticks) in various power states (Tick)
system.membus.power_state.pwrStateResidencyTicks::UNDEFINED   8609802912                       # Cumulative time (in ticks) in various power states (Tick)
system.membus.snoop_filter.totRequests              0                       # Total number of requests made to the snoop filter. (Count)
system.membus.snoop_filter.hitSingleRequests            0                       # Number of requests hitting in the snoop filter with a single holder of the requested data. (Count)
system.membus.snoop_filter.hitMultiRequests            0                       # Number of requests hitting in the snoop filter with multiple (>1) holders of the requested data. (Count)
system.membus.snoop_filter.totSnoops                0                       # Total number of snoops made to the snoop filter. (Count)
system.membus.snoop_filter.hitSingleSnoops            0                       # Number of snoops hitting in the snoop filter with a single holder of the requested data. (Count)
system.membus.snoop_filter.hitMultiSnoops            0                       # Number of snoops hitting in the snoop filter with multiple (>1) holders of the requested data. (Count)
system.mmcs.power_state.pwrStateResidencyTicks::UNDEFINED   8609802912                       # Cumulative time (in ticks) in various power states (Tick)
system.plic.power_state.pwrStateResidencyTicks::UNDEFINED   8609802912                       # Cumulative time (in ticks) in various power states (Tick)
system.tol2bus_list.snoops                          0                       # Total snoops (Count)
system.tol2bus_list.snoopTraffic                    0                       # Total snoop traffic (Byte)
system.tol2bus_list.snoopFanout::samples            0                       # Request fanout histogram (Count)
system.tol2bus_list.snoopFanout::mean             nan                       # Request fanout histogram (Count)
system.tol2bus_list.snoopFanout::stdev            nan                       # Request fanout histogram (Count)
system.tol2bus_list.snoopFanout::underflows            0                       # Request fanout histogram (Count)
system.tol2bus_list.snoopFanout::0                  0                       # Request fanout histogram (Count)
system.tol2bus_list.snoopFanout::1                  0                       # Request fanout histogram (Count)
system.tol2bus_list.snoopFanout::2                  0                       # Request fanout histogram (Count)
system.tol2bus_list.snoopFanout::3                  0                       # Request fanout histogram (Count)
system.tol2bus_list.snoopFanout::4                  0                       # Request fanout histogram (Count)
system.tol2bus_list.snoopFanout::overflows            0                       # Request fanout histogram (Count)
system.tol2bus_list.snoopFanout::min_value            0                       # Request fanout histogram (Count)
system.tol2bus_list.snoopFanout::max_value            0                       # Request fanout histogram (Count)
system.tol2bus_list.snoopFanout::total              0                       # Request fanout histogram (Count)
system.tol2bus_list.power_state.pwrStateResidencyTicks::UNDEFINED   8609802912                       # Cumulative time (in ticks) in various power states (Tick)
system.tol2bus_list.snoop_filter.totRequests            0                       # Total number of requests made to the snoop filter. (Count)
system.tol2bus_list.snoop_filter.hitSingleRequests            0                       # Number of requests hitting in the snoop filter with a single holder of the requested data. (Count)
system.tol2bus_list.snoop_filter.hitMultiRequests            0                       # Number of requests hitting in the snoop filter with multiple (>1) holders of the requested data. (Count)
system.tol2bus_list.snoop_filter.totSnoops            0                       # Total number of snoops made to the snoop filter. (Count)
system.tol2bus_list.snoop_filter.hitSingleSnoops            0                       # Number of snoops hitting in the snoop filter with a single holder of the requested data. (Count)
system.tol2bus_list.snoop_filter.hitMultiSnoops            0                       # Number of snoops hitting in the snoop filter with multiple (>1) holders of the requested data. (Count)
system.tol3bus.snoops                               0                       # Total snoops (Count)
system.tol3bus.snoopTraffic                         0                       # Total snoop traffic (Byte)
system.tol3bus.snoopFanout::samples                 0                       # Request fanout histogram (Count)
system.tol3bus.snoopFanout::mean                  nan                       # Request fanout histogram (Count)
system.tol3bus.snoopFanout::stdev                 nan                       # Request fanout histogram (Count)
system.tol3bus.snoopFanout::underflows              0                       # Request fanout histogram (Count)
system.tol3bus.snoopFanout::0                       0                       # Request fanout histogram (Count)
system.tol3bus.snoopFanout::1                       0                       # Request fanout histogram (Count)
system.tol3bus.snoopFanout::overflows               0                       # Request fanout histogram (Count)
system.tol3bus.snoopFanout::min_value               0                       # Request fanout histogram (Count)
system.tol3bus.snoopFanout::max_value               0                       # Request fanout histogram (Count)
system.tol3bus.snoopFanout::total                   0                       # Request fanout histogram (Count)
system.tol3bus.power_state.pwrStateResidencyTicks::UNDEFINED   8609802912                       # Cumulative time (in ticks) in various power states (Tick)
system.tol3bus.snoop_filter.totRequests             0                       # Total number of requests made to the snoop filter. (Count)
system.tol3bus.snoop_filter.hitSingleRequests            0                       # Number of requests hitting in the snoop filter with a single holder of the requested data. (Count)
system.tol3bus.snoop_filter.hitMultiRequests            0                       # Number of requests hitting in the snoop filter with multiple (>1) holders of the requested data. (Count)
system.tol3bus.snoop_filter.totSnoops               0                       # Total number of snoops made to the snoop filter. (Count)
system.tol3bus.snoop_filter.hitSingleSnoops            0                       # Number of snoops hitting in the snoop filter with a single holder of the requested data. (Count)
system.tol3bus.snoop_filter.hitMultiSnoops            0                       # Number of snoops hitting in the snoop filter with multiple (>1) holders of the requested data. (Count)
system.uartlite.power_state.pwrStateResidencyTicks::UNDEFINED   8609802912                       # Cumulative time (in ticks) in various power states (Tick)
system.voltage_domain.voltage                       1                       # Voltage in Volts (Volt)
system.workload.inst.arm                            0                       # number of arm instructions executed (Count)
system.workload.inst.quiesce                        0                       # number of quiesce instructions executed (Count)

---------- End Simulation Statistics   ----------
